case/case118_SC.m
function mpc =case118_sin_comp_modwo

%-----------------------------
%Aumentando la carga en un 100%
%-----------------------------


%CASE118    Power flow data for IEEE 118 bus test case.
%   Please see CASEFORMAT for details on the case file format.
%   This data was converted from IEEE Common Data Format
%   (ieee118cdf.txt) on 15-Oct-2014 by cdf2matp, rev. 2393
%   See end of file for warnings generated during conversion.
%
%   Converted from IEEE CDF file from:
%       http://www.ee.washington.edu/research/pstca/
%   With baseKV data take from the PSAP format file from the same site,
%   added manually on 10-Mar-2006.
% 
%   08/25/93 UW ARCHIVE           100.0  1961 W IEEE 118 Bus Test Case

%   MATPOWER
%   $Id: case118.m 2394 2014-10-15 20:39:39Z ray $

%% MATPOWER Case Format : Version 2
mpc.version = '2';

%%-----  Power Flow Data  -----%%
%% system MVA base
mpc.baseMVA = 100;

%  bus_i type Pd	  Qd	 Gs Bs	area   Vm		  Va		 baseKV		zone	Vmax	Vmin
mpc.bus= [
	1	1	  87	  46	 0	0	1	   0.95661	 -10.613	 138	    1	    1.05	0.94;
	2	1	  34	  15	 0	0	1	   0.97187	 -9.492	     138	    1	    1.06	0.95;
	3	1	  67	  17	 0	0	1	   0.96838	 -9.954	     138	    1	    1.06	0.95;
	4	2	  51	  20	 0	0	1	   0.998	 -7.46	     138	    1	    1.09	0.99;
	5	1	  0	      0	     0	0	1	   1.0127	 -7.084	     138	    1	    1.09	0.99;
    6	2	  89	  38	 0	0	1	   0.99	     -8.363	     138	    1	    1.09	0.97;
	7	1	  32	  3	     0	0	1	   0.98922	 -8.431      138	    1	    1.09	0.97;
	8	2	  0	      0	     0	0	1	   1.015	 -3.846	     345	    1	    1.09	0.98;  
	9	1	  0	      0	     0	0	1	   1.04908	  0.03	     345	    1	    1.09	0.98;
	10	2	  0	      0	     0	0	1	   1.05	      4.161      345	    1	    1.09	0.98;
	11	1	  119	  39	 0	0	1	   0.98534	 -8.461	     138	    1	    1.08	0.97;
	12	2	  80	  17	 0	0	1	   0.99	     -8.17	     138	    1	    1.09	0.98;
	13	1	  58	  27	 0	0	1	   0.9685	 -9.379	     138	    1	    1.05	0.95;
	14	1	  24	  2	     0	0	1	   0.98362	 -8.574	     138	    1	    1.07	0.98;
	15	2	  154	  51	 0	0	1	   0.97	     -7.991	     138	    1	    1.05	0.98;
	16	1	  43	  17	 0	0	1	   0.98353	 -8.223	     138	    1	    1.07	0.98;
	17	1	  19	  5	     0	0	1	   0.99422	 -5.88	     138	    1	    1.09	0.98;
	18	2	  102	  58	 0	0	1	   0.973	 -6.782	     138	    1	    1.07	0.98;
	19	2	  77	  58	 0	0	1	   0.96522	 -7.809	     138	    1	    1.06	0.98;
	20	1	  31	  5	     0	0	1	   0.96208	 -8.157      138	    1	    1.04	0.96;
	21	1	  24	  14	 0	0	1	   0.96385	 -7.473	     138	    1	    1.03	0.95;
	22	1	  17	  9	     0	0	1	   0.97522	 -5.948	     138	    1	    1.04	0.97;
	23	1	  12	  5      0	0	1	   1.00268	 -2.651   	 138	    1	    1.09	0.98;
	24	2	  0       0 	 0	0	1	   0.992	 -3.982	     138	    1	    1.09	0.98;
	25	2	  0	      0	     0	0	1	   1.05	      3.201	     138	    1	    1.09	0.98;
	26	2	  0	      0	     0	0	1	   1.015	  4.482	     345	    1	    1.09	0.98;
	27	2	  106	  22	 0	0	1	   0.968	 -5.956	     138	    1	    1.09	0.96;
	28	1	  29	  12	 0	0	1	   0.96147	 -6.839	     138	    1	    1.08	0.94;
	29	1	  41	  7	     0	0	1	   0.96292	 -6.891	     138	    1	    1.08	0.93;
	30	1	  0	      0	     0	0	1	   0.99153	 -3.546      345	    1	    1.06	0.98;
	31	2	  73	  46	 0	0	1	   0.967	 -6.439	     138	    1	    1.09	0.94;
	32	2	  101	  39	 0	0	1	   0.96872	 -5.386	     138	    1	    1.08	0.97;
	33	1	  39	  15	 0	0	1	   0.97367	 -8.739	     138	    2	    1.04	0.96;
	34	2	  101	  44	 0	0	1	   0.991	 -7.992	     138	    2	    1.08	0.97;
	35	1	  56	  15	 0	0	1	   0.98723	 -7.963	     138	    2	    1.08	0.96;
	36	2	  53	  29	 0	0	1	   0.98693	 -7.815	     138	    2	    1.08	0.96;
	37	1	  0	      0	     0	0	1	   0.99643	 -7.776	     138	    2	    1.09	0.98;
	38	1	  0	      0	     0	0	1	   0.97176	 -5.037	     345	    2	    1.04	0.95;
	39	1	  46	  19	 0	0	1	   0.97263	 -9.578	     138	    2	    1.09	0.93;
	40	2	  34	  39	 0	0	1	   0.97	     -9.742	     138	    2	    1.09	0.93;
	41	1	  63	  17	 0	0	1	   0.96673	 -9.956	     138	    2	    1.09	0.93;
	42	2	  63	  39	 0	0	1	   0.985	 -7.725	     138	    2	    1.09	0.92;
	43	1	  31	  12     0	0	1	   0.98352	 -8.976	     138	    2	    1.06	0.96;
	44	1	  27	  14     0	0	1	   0.98913	 -7.885	     138	    2	    1.06	0.97;
	45	1	  90	  38	 0	0	1	   0.98982	 -6.566	     138	    2	    1.06	0.94;
	46	2	  48	  17	 0	0	1	   1.005	 -3.151	     138	    2	    1.09	0.98;
	47	1	  58	  0	     0	0	1	   1.01882	 -3.482	     138	    2	    1.09	0.98;
	48	1	  34	  19	 0	0	1	   1.02103	 -3.685	     138	    2	    1.09	0.98;
	49	2	  148	  51	 0	0	1	   1.025	 -3.205	     138	    2	    1.09	0.98;
	50	1	  29	  7	     0	0	1	   1.00272	 -4.259	     138	    2	    1.09	0.99;
	51	1	  29	  14     0	0	1	   0.96993	 -5.58	     138	    2	    1.07	0.97;
	52	1	  31	  9	     0	0	1	   0.95996	 -6.167	     138	    2	    1.06	0.97;
	53	1	  39	  19	 0	0	1	   0.94746	 -6.142	     138	    2	    1.06	0.96;
	54	2	  193	  55	 0	0	1	   0.955	 -4.492	     138	    2	    1.09	0.97;
	55	2	  107	  38	 0	0	1	   0.95542	 -4.539	     138	    2	    1.09	0.97;
	56	2	  143	  31	 0	0	1	   0.95671	 -4.744	     138	    2	    1.09	0.97;
	57	1	  20	  5	     0	0	1	   0.97334	 -4.939	     138	    2	    1.08	0.98;
	58	1	  20	  5	     0	0	1	   0.96197	 -5.522	     138	    2	    1.07	0.97;
	59	2	  473	  193	 0	0	1	   0.985	 -5.118	     138	    2	    1.09	0.98;
	60	1	  113	  5	     0	0	1	   0.99328	 -3.126	     138	    2	    1.09	0.99;
	61	2	  0	      0	     0	0	1	   0.995	 -2.397	     138	    2	    1.09	0.99;
	62	2	  131	  24	 0	0	1	   0.998	 -2.859	     138	    2	    1.09	0.98;
	63	1	  0	      0	     0	0	1	   0.97098	 -3.138	     345	    2	    1.06	0.96;
	64	1	  0	      0	     0	0	1	   0.98518	 -2.132	     345	    2	    1.07	0.98;
	65	2	  0	      0	     0	0	1	   1.005	 -0.354	     345	    2	    1.07	0.98;
	66	2	  67	  31	 0	0	1	   1.05	     -1.199	     138	    2	    1.09	0.98;
	67	1	  48	  12	 0	0	1	   1.02022	 -2.756	     138	    2	    1.09	0.98;
	68	1	  0	      0	     0	0	1	   1.00291	 -0.56	     345	    2	    1.08	0.98;
	69	3	  0	      0	     0	0	1	   1.035	  0	         138	    2	    1.09	0.98;
	70	2	  113	  34	 0	0	1	   0.98493	 -5.176	     138	    1	    1.06	0.98;
	71	1	  0	      0	     0	0	1	   0.98685	 -5.998	     138	    1	    1.06	0.99;
	72	2	  0	      0	     0	0	1	   0.98	     -5.29	     138	    1	    1.09	0.99;
	73	2	  0	      0	     0	0	1	   0.991	 -7.175	     138	    1	    1.06	0.99;
	74	2	  116	  46	 0	0	1	   0.958	 -6.439	     138	    1	    1.03	0.93;
	75	1	  80	  19	 0	0	1	   0.97388	 -5.419	     138	    1	    1.04	0.94;
	76	2	  116	  61	 0	0	1	   0.943	 -5.21	     138	    2	    1.02	0.93;
	77	2	  104	  48	 0	0	1	   1.006	 -3.226	     138	    2	    1.08	0.98;
	78	1	  121	  44	 0	0	1	   1.01258	 -3.735	     138	    2	    1.07	0.99;
	79	1	  67	  55	 0	0	1	   1.01625	 -3.86	     138	    2	    1.07	0.99;
	80	2	  222	  44	 0	0	1	   1.04	     -2.803	     138	    2	    1.09	0.99;
	81	1	  0	      0	     0	0	1	   0.99518	 -1.386	     345	    2	    1.07	0.98;
	82	2	  92	  46	 0	0	1	   1	     -4.327	     138	    3	    1.06	0.94;
	83	1	  34	  17	 0	0	1	   0.99536	 -4.25	     138	    3	    1.07	0.99;
	84	1	  19	  12	 0	0	1	   0.98687	 -3.499	     138	    3	    1.03	0.96;
	85	2	  41	  26	 0	0	1	   0.985	 -2.81	     138	    3	    1.02	0.96;
	86	1	  36	  17	 0	0	1	   0.9927	 -0.458	     138	    3	    0.96	0.93;
	87	2	  0	      0	     0	0	1	   1.015	  5.694	     161	    3	    1.09	0.98;
	88	1	  82	  17	 0	0	1	   0.99121	 -3.477	     138	    3	    1.06	0.98;
	89	2	  0       0	     0	0	1	   1.005	 -2.031	     138	    3	    1.09	0.98;
	90	2	  133	  72	 0	0	1	   0.985	 -5.733	     138	    3	    1.09	0.98;
	91	2	  0	      0	     0	0	1	   0.98	     -5.934	     138	    3	    1.09	0.98;
	92	2	  111	  17	 0	0	1	   0.99	     -2.84	     138	    3	    1.09	0.98;
	93	1	  20	  12     0	0	1	   0.99583	 -3.729	     138	    3	    1.08	0.98;
	94	1	  51	  27	 0	0	1	   0.99686	 -4.058   	 138	    3	    1.07	0.98;
	95	1	  72	  53	 0	0	1	   0.98761	 -4.74	     138	    3	    1.05	0.98;
	96	1	  65	  26	 0	0	1	   0.99965	 -4.556	     138	    3	    1.07	0.98;
	97	1	  26	  15     0	0	1	   1.01493	 -4.031	     138	    2	    1.08	0.98;
	98	1	  58	  14     0	0	1	   1.02353	 -3.955	     138	    2	    1.08	0.98;
	99	2	  0 	  0	     0	0	1	   1.01	     -4.436	     138	    2	    1.09	0.98;
	100	2	  63	  31	 0	0	1	   1.017	 -2.644	     138	    3	    1.09	0.98;
	101	1	  38	  26	 0	0	1	   0.99798	 -3.587	     138	    3	    1.08	0.98;
	102	1 	  9	      5 	 0	0	1	   1.00002	 -3.191	     138	    3	    1.09	0.98;
	103	2	  39	  27	 0	0	1	   1.01	     -2.374	     138	    3	    1.09	0.98;
	104	2	  65	  43	 0	0	1	   0.971	 -2.091	     138	    3	    1.08	0.99;
	105	2	  53	  44	 0	0	1	   0.999412	 -1.861	     138	    3	    1.08	0.98;
	106	1	  73	  27	 0	0	1	   0.98175	 -3.146	     138	    3	    1.07	0.97;
	107	2	  48	  20	 0	0	1	   0.952	 -3.487	     138	    3	    1.06	0.94;
	108	1	  3	      2 	 0	0	1	   0.98403	 -0.773	     138	    3	    1.08	0.98;
	109	1	  14	  5	     0	0	1	   0.98011	 -0.288	     138	    3	    1.08	0.98;
	110	2	  67	  51	 0	0	1	   0.97379	  1.349	     138	    3	    1.09	0.97;
	111	2	  0	      0	     0	0	1	   0.98	      3.736	     138	    3	    1.09	0.97;
	112	2	  43	  22	 0	0	1	   0.975	  2.639	     138	    3	    1.09	0.97;
	113	2	  0	      0	     0	0	1	   0.993	 -4.632	     138	    1	    1.09	0.98;
	114	1	  14	  5      0	0	1	   0.96343	 -6.185	     138	    1	    1.08	0.96;
	115	1	  38	  12 	 0	0	1	   0.96296	 -6.273	     138	    1	    1.08	0.96;
	116	2	  0	      0	     0 	0	1	   1.005	 -0.519	     138	    2	    1.09	0.98;
	117	1	  34      14	 0	0	1	   0.98241	 -8.213	     138	    1	    1.06	0.95;
	118	1	  56	  26	 0	0	1	   0.95815	 -5.778	     138	    2	    1.03	0.93;
];
%% generator data
%	bus	Pg	    Qg	    Qmax   Qmin	       Vg	   mBase status Pmax	Pmin	Pc1	Pc2	Qc1min	Qc1max	Qc2min	Qc2max	ramp_agc	ramp_10	ramp_30	ramp_q	apf

mpc.gen = [
	4	5	   -5.74    300	    -300     0.998	    100 	1	5	    5	    ;%*****
	6	5	    28.09   0	     0      0.99	    100 	1	20	    20   	;%*****----
	8	5	    99.18   300	    -300     1.015	    100 	1	25	    25   	;%*****
	10	250	   -51.04   200	    -147     1.05	    100 	1	250	    250 	;%*****
	12	152.46  105.89  120	    -35      0.99	    100 	1	300     100 	;
	15	10	    22.94   30	    -10      0.97	    100 	1	25	    25   	;%*****
	18	100	    36.39   50	    -16      0.973	    100 	1	100	    100   	;%*****
	19	5	    3.7	    24	    -8	     0.96522	100 	1	30	    5   	;
	24	5	   -8.33    300	    -300     0.992	    100 	1	5	    5   	;%*****
	25	287.46  55.24	140	    -47      1.05	    100 	1	300     100 	;
	26	314	    20.71   1000    -1000    1.015	    100 	1	350	    100   	;
	27	8	    26.61   300	    -300     0.968	    100 	1	25	    25   	;%*****
	31	8	    46.94   300	    -300     0.967	    100 	1	25	    25   	;%*****
	32	100	   -1.25    42	    -14      0.963	    100 	1	80	    80   	;%*****
	34	8	    7.45    0	    0	     0.991	    100 	1	25	    25   	;%*****---
	36	100	    21.49   0	    0	     0.98693	100 	1	100	    100   	;%*****---
	40	8	    47.29   300	    -300     0.97	    100 	1	25	    25   	;%*****
	42	8	    60.57   300	    -300     0.985	    100 	1	25	    25   	;%*****
	46	86.46  -6.93    100	    -100     1.005	    100 	1	86.46   86.46  	;%*****
	49	204	    140.6   210	    -85      1.025	    100 	1	200	    200   	;%*****
	54	115.46  13.93   300	    -300     0.955	    100 	1	250     50 	    ;
	55	94	    18.19   23	    -8	     0.95542    100 	1	100  	25   	;
	56	94.63   15	    15	    -8	     0.95671    100 	1	80 	    80  	;%*****
	59	155	    76.83   180	    -60      0.985	    100 	1	200 	50   	;
	61	160	    44.97   300	    -100     0.995	    100 	1	200 	50   	;
	62	71.68   14.32   0	    0      0.998	    100 	1	100 	100  	;%*****----
	65	391	    80.76   200	    -67      1.005	    100 	1	370 	370   	;%*****
	66	392	    2.1	    200	    -67      1.05	    100 	1	370	    370   	;%*****
	69	250 	5.12    99999   -99999   1.035	    100 	1	300  	80   	;
	70	53.1    15.84   0	     0       0.98493    100 	1	60      60   	;%*****---
	72	10	    11.07   100	    -100     0.98	    100 	1	10 	    10   	;%*****
	73	5	    9.68    100	    -100     0.991	    100 	1	30 	    5   	;
	74	5	    9	    0	    0	     0.958	    100 	1	15 	    15   	;%*****---
	76	100	    23	    23	    -8	     0.943	    100 	1	100 	25   	;
	77	75.8    54.25   70	    -20      1.006	    100 	1	100 	25   	;
	80	250	    124.39  280	    -165     1.04	    100 	1	250 	250   	;%*****
	82	59.22   0  	    9900    -9900    1  	    100 	1	59.22 	59.22  	;%*****
	85	10	    19.7   23	    -8	     0.985	    100 	1	30   	10   	;
	87	229.36  12.96   1000    -100     1.015	    100 	1	300 	100 	;
	89	155	   -7.06    300	    -210     1.005	    100 	1	160 	160  	;%*****
	90	8	    80.52   300	    -300     0.985	    100 	1	20 	    8   	;
	91	20	   -13.02   100	    -100     0.98	    100 	1	30 	    30    	;%*****
	92	150	    7.05    9	    -3	     0.99	    100 	1	150 	150   	;%*****
	99	217.81 -17.34   100	    -100     1.01	    100 	1	250 	250 	;%*****
	100	252	    114.77  155	    -50      1.017	    100 	1	250 	250   	;%*****
	103	20	    40	    0	    -0      1.01	    100 	1	10 	    10   	;%*****----
	104	45.05   16.43   0	    0	     0.971	    100 	1	100 	100  	;%*****----
	105	50.78   5.18    0	    0	     0.99412    100 	1	100 	100  	;%*****----
	107	8	    14.76   200	    -200     0.952	    100 	1	20 	    20   	;%*****
	110	25	    17.47   0	    0	     0.97379    100 	1	50 	    50   	;%*****----
	111	36	   -17.37   1000    -100     0.98	    100 	1	100  	25   	;
	112	43.33   48.81   1000    -100     0.975	    100 	1	100 	25  	;
	113	99.72   48.16   200	    -100     0.993	    100 	1	80 	    80      ;%*****
	116	25	    18.03   1000    -1000    1.005 	    100 	1	25 	    25   	;%*****
	1	0	    0	    0     0	     0.95661    100	    1	1000    0;
	2	0	    0	    0     0	     0.97187    100	    1	1000    0;
    3	0	    0	    0     0	     0.96838    100	    1	1000    0;
	5	0	    0	    0     0	     1.00127    100	    1	1000    0;
	7	0	    0	    0     0	     0.98922    100	    1	1000    0;
	9	0	    0	    0     0	     1.04908    100	    1	1000    0;
	11	0	    0	    0     0	     0.98534    100	    1	1000    0;
	13	0	    0	    0     0	     0.9685     100	    1	1000    0;
	14	0	    0	    0     0	     0.98362    100	    1	1000    0;
	16	0	    0	    0     0	     0.98353    100	    1	1000    0;
	17	0	    0	    0     0	     0.99422    100	    1	1000    0;
	20	0	    0	    0     0	     0.96208    100	    1	1000    0;
	21	0	    0	    0     0	     0.96385    100	    1	1000    0;
	22	0	    0	    0     0	     0.97522    100	    1	1000    0;
	23	0	    0	    0     0	     1.00268    100	    1	1000    0;
	28	0	    0	    0     0	     0.96147    100	    1	1000    0;
	29	0	    0	    0     0	     0.96292    100	    1	1000    0;
	30	0	    0	    0     0	     0.99153    100	    1	1000    0;
	33	0	    0	    0     0	     0.97367    100	    1	1000    0;
	35	0	    0	    0     0	     0.98723    100	    1	1000    0;
	37	0	    0	    0     0	     0.99643    100	    1	1000    0;
	38	0	    0	    0     0	     0.97176    100	    1	1000    0;
	39	0	    0	    0     0	     0.97263    100	    1	1000    0;
	41	0	    0	    0     0	     0.96673    100	    1	1000    0;
	43	0	    0	    0     0	     0.98352    100	    1	1000    0;
	44	0	    0	    0     0	     0.98913    100	    1	1000    0;
	45	0	    0	    0     0	     0.98982    100	    1	1000    0;
	47	0	    0	    0     0	     1.01882    100	    1	1000    0;
	48	0	    0	    0     0	     1.02103    100	    1	1000    0;
	50	0	    0	    0     0	     1.00272    100	    1	1000    0;
	51	0	    0	    0     0	     0.96993    100	    1	1000    0;
	52	0	    0	    0     0	     0.95996    100	    1	1000    0;
	53	0	    0	    0     0	     0.94746    100	    1	1000    0;
	57	0	    0	    0     0	     0.97334    100	    1	1000    0;
	58	0	    0	    0     0	     0.96197    100	    1	1000    0;
	60	0	    0	    0     0	     0.99328    100	    1	1000    0;
	63	0	    0	    0     0	     0.97098    100	    1	1000    0;
	64	0	    0	    0     0	     0.98518    100	    1	1000    0;
	67	0	    0	    0     0	     1.02022    100	    1	1000    0;
	68	0	    0	    0     0	     1.00291    100	    1	1000    0;
	71	0	    0	    0     0	     0.98685    100	    1	1000    0;
	75	0	    0	    0     0	     0.97388    100	    1	1000    0;
	78	0	    0	    0     0	     1.01258    100	    1	1000    0;
	79	0	    0	    0     0	     1.01625    100	    1	1000    0;
	81	0	    0	    0     0	     0.99518    100	    1	1000    0;
	83	0	    0	    0     0	     0.99536    100	    1	1000    0;
	84	0	    0	    0     0	     0.98687    100	    1	1000    0;
	86	0	    0	    0     0	     0.9927	    100	    1	1000    0;
	88	0	    0	    0     0	     0.99121    100	    1	1000    0;
	93	0	    0	    0     0	     0.99583    100	    1	1000    0;
	94	0	    0	    0     0	     0.99686    100	    1	1000    0;
	95	0	    0	    0     0	     0.98761    100	    1	1000    0;
	96	0	    0	    0     0	     0.99965    100	    1	1000    0;
	97	0	    0	    0     0	     1.01493    100	    1	1000    0;
	98	0	    0	    0     0	     1.02353    100	    1	1000    0;
	101	0	    0	    0     0	     0.99798    100	    1	1000    0;
	102	0	    0	    0     0	     1.00002    100	    1	1000    0;
	106	0	    0	    0     0	     0.955	    100	    1	1000    0;
	108	0	    0	    0     0	     0.98403    100	    1	1000    0;
	109	0	    0	    0     0	     0.98011    100	    1	1000    0;
	114	0	    0	    0     0	     0.96343    100	    1	1000    0;
	115	0	    0	    0     0	     0.96296    100	    1	1000    0;
    117	0	    0	    0     0	     0.98241    100	    1	1000    0;
	118	0	    0	    0     0	     0.95815    100	    1	1000    0;
];



%% branch data
%	fbus	tbus   r        x         b     rateA rateB rateC ratio	 angle status angmin	angmax
mpc.branch = [
	1	2    	0.0303	  0.0999	0.0254    115	115   115   0   	0	1	-30	30;
	1	3	    0.0129	  0.0424	0.01082   115   115   115	0   	0   1	-30	30;
	4	5   	0.00176	  0.00798	0.0021    200	200	  200  	0   	0	1	-30	30;
	3	5   	0.0241	  0.108	    0.0284    115	115   115	0   	0	1	-30	30;
	5	6   	0.0119	  0.054	    0.01426   115	115   115	0   	0	1	-30	30;
	6	7   	0.00459	  0.0208	0.0055    115	115   115	0	    0	1	-30	30;
	8	9   	0.00244	  0.0305	1.162     200	200	  200	0	    0	1	-30	30;
	8	5    	0	      0.0267	0         200	200	  200 	0.985	0	1	-30	30;
	9	10  	0.00258	  0.0322	1.23      200	200	  200	0	    0	1	-30	30;
	4	11  	0.0209	  0.0688	0.01748   115	115   115 	0	    0	1	-30	30;
	5	11  	0.0203	  0.0682	0.01738   115	115   115	0   	0	1	-30	30;
	11	12  	0.00595	  0.0196	0.00502   115	115   115	0   	0	1	-30	30;
	2	12  	0.0187	  0.0616	0.01572   115	115   115	0   	0	1	-30	30;
	3	12  	0.0484	  0.16	    0.0406    115	115   115	0       0	1	-30	30;
	7	12  	0.00862	  0.034	    0.00874   115	115   115	0   	0	1	-30	30;
	11	13  	0.02225	  0.0731	0.01876   115	115   115	0   	0	1	-30	30;
	12	14  	0.0215	  0.0707	0.01816   115	115   115	0   	0	1	-30	30;
	13	15  	0.0744	  0.2444	0.06268   115	115   115   0   	0	1	-30	30;
	14	15  	0.0595	  0.195	    0.0502    115	115   115	0    	0	1	-30	30;
	12	16  	0.0212	  0.0834	0.0214    115	115   115	0   	0	1	-30	30;
	15	17  	0.0132	  0.0437	0.0444    200	200	  200	0   	0	1	-30	30;
	16	17  	0.0454	  0.1801	0.0466    115	115   115	0   	0	1	-30	30;
	17	18  	0.0123	  0.0505	0.01298   115	115   115  0	   	0   1	-30	30;
	18	19  	0.01119	  0.0493	0.01142   115	115   115	0   	0	1	-30	30;
	19	20	    0.0252	  0.117	    0.0298    115	115   115	0   	0	1	-30	30;
	15	19  	0.012	  0.0394	0.0101    115	115   115	0   	0	1	-30	30;
	20	21  	0.0183	  0.0849	0.0216    115	115   115	0   	0	1	-30	30;
	21	22  	0.0209	  0.097	    0.0246    115	115   115	0   	0	1	-30	30;
	22	23  	0.0342	  0.159	    0.0404    115	115   115 	0   	0	1	-30	30;
	23	24  	0.0135	  0.0492	0.0498    115	115   115  	0   	0	1	-30	30;
	23	25  	0.0156	  0.08	    0.0864    200	200	  200 	0   	0	1	-30	30;
	26	25  	0     	  0.0382	0         200	200	  200	0.96   	0	1	-30	30;
	25	27  	0.0318	  0.163	    0.1764    200	200	  200  	0   	0	1	-30	30;
	27	28  	0.01913	  0.0855	0.0216    115	115   115  	0   	0	1	-30	30;
	28	29  	0.0237	  0.0943	0.0238    115	115   115 	0   	0	1	-30	30;
	30	17  	0	      0.0388	0         200	200	  200  	0.96    0	1	-30	30;
	8	30  	0.00431	  0.0504	0.514     115	115   115	0   	0	1	-30	30;
	26	30  	0.00799	  0.086	    0.908     200	200	  200  	0   	0	1	-30	30;
	17	31  	0.0474	  0.1563	0.0399    115	115   115 	0   	0	1	-30	30;
	29	31  	0.0108	  0.0331	0.0083    115	115   115	0   	0	1	-30	30;
	23	32  	0.0317	  0.1153	0.1173    115	115   115  	0   	0	1	-30	30;
	31	32  	0.0298	  0.0985	0.0251    115	115   115	0   	0	1	-30	30;
	27	32  	0.0229	  0.0755	0.01926   115	115   115 	0   	0	1	-30	30;
	15	33  	0.038 	  0.1244	0.03194   115	115   115	0   	0	1	-30	30;
	19	34  	0.0752	  0.247	    0.0632    115	115   115  	0   	0	1	-30	30;
	35	36  	0.00224	  0.0102	0.00268   115	115   115 	0   	0	1	-30	30;
	35	37  	0.011	  0.0497	0.01318   115	115   115	0   	0	1	-30	30;
	33	37  	0.0415 	  0.142	    0.0366    115	115   115  	0   	0	1	-30	30;
	34	36  	0.00871	  0.0268	0.00568   115	115   115  	0   	0	1	-30	30;
	34	37  	0.00256	  0.0094	0.00984   200	200	  200  	0   	0	1	-30	30;
	38	37  	0	      0.0375	0         200	200	  200	0.935   0	1	-30	30;
	37	39  	0.0321	  0.106	    0.027     115	115   115 	0   	0	1	-30	30;
	37	40  	0.0593	  0.168	    0.042     115	115   115	0   	0	1	-30	30;
	30	38  	0.00464	  0.054	    0.422     115	115   115	0   	0	1	-30	30;
	39	40  	0.0184	  0.0605	0.01552   115	115   115	0   	0	1	-30	30;
	40	41  	0.0145	  0.0487	0.01222   115	115   115  	0   	0	1	-30	30;
	40	42  	0.0555	  0.183	    0.0466    115	115   115	0   	0	1	-30	30;
	41	42  	0.041 	  0.135	    0.0344    115	115   115	0   	0	1	-30	30;
	43	44  	0.0608	  0.2454	0.06068   115	115   115	0   	0	1	-30	30;
	34	43  	0.0413	  0.1681	0.04226   115	115   115  	0   	0	1	-30	30;
	44	45  	0.0224	  0.0901	0.0224    115	115   115  	0   	0	1	-30	30;
	45	46  	0.04	  0.1356	0.0332    115	115   115  	0   	0	1	-30	30;
	46	47  	0.038	  0.127	    0.0316    115	115   115   0   	0	1	-30	30;
	46	48	    0.0601	  0.189	    0.0472    115	115   115	0   	0	1	-30	30;
	47	49   	0.0191	  0.0625	0.01604   115	115   115 	0   	0	1	-30	30;
	42	49  	0.0715	  0.323	    0.086     115	115   115  	0   	0	1	-30	30;
	42	49  	0.0715	  0.323	    0.086     115	115   115  	0   	0	1	-30	30;
	45	49	    0.0684	  0.186	    0.0444    115	115   115  	0   	0	1	-30	30;
	48	49	    0.0179	  0.0505	0.01258   115	115   115  	0   	0	1	-30	30;
	49	50  	0.0267	  0.0752	0.01874   115	115   115  	0   	0	1	-30	30;
	49	51  	0.0486	  0.137	    0.0342    115	115   115  	0   	0	1	-30	30;
	51	52  	0.0203	  0.0588	0.01396   115	115   115	0   	0	1	-30	30;
	52	53  	0.0405	  0.1635	0.04058   115	115   115	0   	0	1	-30	30;
	53	54  	0.0263	  0.122	    0.031     115	115   115   0   	0	1	-30	30;
	49	54  	0.073	  0.289	    0.0738    115	115   115 	0     	0	1	-30	30;
	49	54  	0.0869	  0.291	    0.073     115	115   115  	0   	0	1	-30	30;
	54	55	    0.0169	  0.0707	0.0202    115	115   115	0   	0	1	-30	30;
	54	56  	0.00275	  0.00955	0.00732   115	115   115 	0   	0	1	-30	30;
	55	56  	0.00488	  0.0151	0.00374   115	115   115	0   	0	1	-30	30;
	56	57  	0.0343	  0.0966	0.0242    115	115   115	0   	0	1	-30	30;
	50	57  	0.0474	  0.134	    0.0332    115	115   115 	0   	0	1	-30	30;
	56	58  	0.0343	  0.0966	0.0242    115	115   115  	0   	0	1	-30	30;
	51	58  	0.0255	  0.0719	0.01788   115	115   115  	0   	0	1	-30	30;
	54	59  	0.0503	  0.2293	0.0598    115	115   115	0   	0	1	-30	30;
	56	59  	0.0825	  0.251	    0.0569    115	115   115 	0   	0	1	-30	30;
	56	59  	0.0803	  0.239	    0.0536    115	115   115  	0   	0	1	-30	30;
	55	59  	0.04739	  0.2158	0.05646   115	115   115 	0   	0	1	-30	30;
	59	60  	0.0317	  0.145	    0.0376    115	115   115	0   	0	1	-30	30;
	59	61  	0.0328	  0.15	    0.0388    115	115   115	0   	0	1	-30	30;
	60	61  	0.00264	  0.0135 	0.01456   200	200	  200  	0   	0	1	-30	30;
	60	62  	0.0123	  0.0561	0.01468   115	115   115  	0   	0	1	-30	30;
	61	62  	0.00824	  0.0376	0.0098    115	115   115  	0   	0	1	-30	30;
	63	59  	0	      0.0386	0         200	200	  200   0.96    0	1	-30	30;
	63	64  	0.00172	  0.02	    0.216     200	200	  200  	0   	0	1	-30	30;
	64	61  	0	      0.0268	0         200	200	  200  	0.985   0	1	-30	30;
	38	65  	0.00901	  0.0986	1.046     200	200	  200  	0   	0	1	-30	30;
	64	65  	0.00269	  0.0302	0.38      200	200	  200  	0   	0	1	-30	30;
	49	66  	0.018	  0.0919	0.0248    200	200	  200  	0   	0	1	-30	30;
	49	66  	0.018	  0.0919	0.0248    200	200	  200  	0   	0	1	-30	30;
	62	66  	0.0482	  0.218	    0.0578    115	115   115  	0   	0	1	-30	30;
	62	67	    0.0258	  0.117	    0.031     115	115   115  	0   	0	1	-30	30;
	65	66	    0	      0.037 	0         200	200	  200   0.935  	0	1	-30	30;
	66	67	    0.0224	  0.1015	0.02682   115	115   115  	0   	0	1	-30	30;
	65	68	    0.00138	  0.016	    0.638     200	200	  200  	0   	0	1	-30	30;
	47	69  	0.0844	  0.2778	0.07092   115	115   115  	0   	0	1	-30	30;
	49	69  	0.0985	  0.324	    0.0828    115	115   115	0   	0	1	-30	30;
	68	69  	0	      0.037	    0         200	200	  200   0.935   0	1	-30	30;
	69	70  	0.03	  0.127	    0.122     200	200	  200 	0   	0	1	-30	30;
	24	70  	0.00221	  0.4115	0.10198   115	115   115  	0   	0	1	-30	30;
	70	71  	0.00882	  0.0355	0.00878   115	115   115  	0   	0	1	-30	30;
	24	72  	0.0488	  0.196	    0.0488    115	115   115	0   	0	1	-30	30;
	71	72  	0.0446	  0.18	    0.04444   115	115   115  	0   	0	1	-30	30;
	71	73  	0.00866	  0.0454	0.01178   115	115   115  	0   	0	1	-30	30;
	70	74  	0.0401	  0.1323	0.03368   115	115   115  	0   	0	1	-30	30;
	70	75  	0.0428	  0.141	    0.036     115	115   115  	0   	0	1	-30	30;
	69	75  	0.0405	  0.122	    0.124     200	200	  200  	0   	0	1	-30	30;
	74	75  	0.0123	  0.0406	0.01034   115	115   115 	0   	0	1	-30	30;
	76	77  	0.0444	  0.148	    0.0368    115	115   115	0   	0	1	-30	30;
	69	77  	0.0309	  0.101	    0.1038    115	115   115	0   	0	1	-30	30;
	75	77  	0.0601	  0.1999	0.04978   115	115   115	0   	0	1	-30	30;
	77	78  	0.00376	  0.0124	0.01264   115	115   115	0   	0	1	-30	30;
	78	79  	0.00546	  0.0244	0.00648   115	115   115	0   	0	1	-30	30;
	77	80  	0.017	  0.0485	0.0472    200	200	  200	0   	0	1	-30	30;
	77	80  	0.0294	  0.105	    0.0228    200	200	  200	0   	0	1	-30	30;
	79	80  	0.0156	  0.0704	0.0187    115	115   115   0   	0	1	-30	30;
	68	81  	0.00175	  0.0202	0.808     200	200	  200   0      	0	1	-30	30;
	81	80  	0	      0.037	    0         200	200	  200  	0.935  	0	1	-30	30;
	77	82  	0.0298	  0.0853	0.08174   115	200	  200  	0	    0	1	-30	30;
	82	83  	0.0112	  0.03665	0.03796   115	200	  200  	0   	0 	1	-30	30;
	83	84  	0.0625	  0.132	    0.0258    115	115   115  	0   	0	1	-30	30;
	83	85  	0.043	  0.148	    0.0348    115	115   115 	0   	0	1	-30	30;
	84	85  	0.0302	  0.0641 	0.01234   115	115   115  	0   	0	1	-30	30;
	85	86  	0.035	  0.123	    0.0276    200	200	  200  	0   	0	1	-30	30;
	86	87  	0.02828	  0.2074	0.0445    200	200	  200	0   	0	1	-30	30;
	85	88  	0.02	  0.102	    0.0276    115	115   115	0   	0	1	-30	30;
	85	89  	0.0239	  0.173	    0.047     115	115   115  	0   	0	1	-30	30;
	88	89  	0.0139	  0.0712	0.01934   200	200	  200 	0   	0	1	-30	30;
	89	90  	0.0518	  0.188	    0.0528    200	200	  200  	0   	0	1	-30	30;
	89	90  	0.0238	  0.0997	0.106     200	200	  200 	0   	0	1	-30	30;
	90	91  	0.0254	  0.0836	0.0214    115	115   115  	0   	0	1	-30	30;
	89	92  	0.0099	  0.0505	0.0548    200	200	  200  	0   	0	1	-30	30;
	89	92  	0.0393	  0.1581	0.0414    200	200	  200  	0   	0	1	-30	30;
	91	92  	0.0387	  0.1272	0.03268   115	115   115 	0   	0	1	-30	30;
	92	93  	0.0258	  0.0848	0.0218    115	115   115 	0   	0	1	-30	30;
	92	94  	0.0481	  0.158	    0.0406    115	115   115  	0   	0	1	-30	30;
	93	94  	0.0223	  0.0732	0.01876   115	115   115  	0   	0	1	-30	30;
	94	95  	0.0132	  0.0434	0.0111    115	115   115  	0   	0	1	-30	30;
	80	96  	0.0356	  0.182	    0.0494    115	115   115  	0   	0	1	-30	30;
	82	96  	0.0162	  0.053	    0.0544    115	115   115  	0   	0	1	-30	30;
	94	96  	0.0269	  0.0869	0.023     115	115   115	0   	0	1	-30	30;
	80	97  	0.0183	  0.0934	0.0254    115	115   115  	0   	0	1	-30	30;
	80	98  	0.0238	  0.108	    0.0286    115	115   115  	0   	0	1	-30	30;
	80	99  	0.0454	  0.206	    0.0546    115	200	  200  	0   	0	1	-30	30;
	92	100 	0.0648	  0.295	    0.0472    115	115   115  	0      	0	1	-30	30;
	94	100 	0.0178	  0.058	    0.0604    115	115   115  	0   	0	1	-30	30;
	95	96 	    0.0171	  0.0547	0.01474   115	115   115  	0   	0	1	-30	30;
	96	97  	0.0173	  0.0885	0.024     115	115   115  	0   	0	1	-30	30;
	98	100 	0.0397	  0.179	    0.0476    115	115   115  	0   	0	1	-30	30;
	99	100 	0.018	  0.0813	0.0216    115	115   115  	0   	0	1	-30	30;
	100	101 	0.0277	  0.1262	0.0328    115	115   115  	0   	0	1	-30	30;
	92	102 	0.0123	  0.0559	0.01464   115	115   115  	0   	0	1	-30	30;
	101	102 	0.0246	  0.112	    0.0294    115	115   115  	0   	0	1	-30	30;
	100	103 	0.016     0.0525	0.0536    200	200   200	0   	0	1	-30	30;
	100	104 	0.0451	  0.204	    0.0541    115	115   115  	0   	0	1	-30	30;
	103	104 	0.0466	  0.1584	0.0407    115	115   115  	0   	0	1	-30	30;
	103	105 	0.0535	  0.1625	0.0408    115	115   115	0   	0	1	-30	30;
	100	106 	0.0605	  0.229	    0.062     115	115   115  	0   	0	1	-30	30;
	104	105 	0.00994	  0.0378	0.00986   115	115   115	0   	0	1	-30	30;
	105	106 	0.014	  0.0547	0.01434   115	115   115 	0   	0	1	-30	30;
	105	107 	0.053	  0.183	    0.0472    115	115   115  	0   	0	1	-30	30;
	105	108 	0.0261	  0.0703	0.01844   115	115   115  	0   	0	1	-30	30;
	106	107 	0.053	  0.183	    0.0472    115	115   115	0   	0	1	-30	30;
	108	109 	0.0105	  0.0288	0.0076    115	115   115 	0   	0	1	-30	30;
	103	110 	0.03906	  0.1813	0.0461    115	115   115   0   	0	1	-30	30;
	109	110 	0.0278	  0.0762	0.0202    115	115   115 	0    	0	1	-30	30;
	110	111 	0.022	  0.0755	0.02      115	115   115	0   	0	1	-30	30;
	110	112 	0.0247	  0.064	    0.062     115	115   115 	0   	0	1	-30	30;
	17	113 	0.00913	  0.0301	0.00768   115	115   115  	0   	0	1	-30	30;
	32	113 	0.0615	  0.203	    0.0518    200	200   200  	0   	0	1	-30	30;
	32	114	    0.0135	  0.0612	0.01628   115	115   115  	0   	0	1	-30	30;
	27	115	    0.0164	  0.0741	0.01972   115	115   115  	0   	0	1	-30	30;
	114	115	    0.0023	  0.0104	0.00276   115	115   115	0   	0	1	-30	30;
	68	116	    0.00034	  0.00405	0.164     200	200   200  	0   	0	1	-30	30;
	12	117	    0.0329	  0.14	    0.0358    115	115   115  	0   	0	1	-30	30;
	75	118	    0.0145	  0.0481	0.01198   115	115   115  	0   	0	1	-30	30;
	76	118	    0.0164	  0.0544	0.01356   115	115   115   0   	0	1	-30	30;
	1	3	0.0129	  0.0424	0.01082   115   115   115	0	    0   0	-30	30;
	11	12	0.00595	  0.0196	0.00502   115	115   115	0       0	0	-30	30;
	3	12	0.0484	  0.16	    0.0406    115	115   115	0       0	0	-30	30;
	12	16	0.0212	  0.0834	0.0214    115	115   115	0       0	0	-30	30;
	18	19	0.01119	  0.0493	0.01142   115	115   115	0       0	0	-30	30;
	19	20	0.0252	  0.117	    0.0298    115	115   115	0       0	0	-30	30;
	15	19	0.012	  0.0394	0.0101    115	115   115	0       0	0	-30	30;
	26	25	0	      0.0382	0         200	200	  200	0.96   	0	0	-30	30;
	25	27	0.0318	  0.163	    0.1764    200	200	  200	0       0	0	-30	30;
	31	32	0.0298	  0.0985	0.0251    115	115   115	0       0	0	-30	30;
	19	34	0.0752	  0.247	    0.0632    115	115   115  	0       0	0	-30	30;
	35	36	0.00224	  0.0102	0.00268   115	115   115 	0       0	0	-30	30;
	41	42	0.041 	  0.135	    0.0344    115	115   115	0       0	0	-30	30;
	45	46	0.04	  0.1356	0.0332    115	115   115  	0       0	0	-30	30;
	45	49	0.0684	  0.186	    0.0444    115	115   115  	0       0	0	-30	30;
	48	49	0.0179	  0.0505	0.01258   115	115   115  	0       0	0	-30	30;
	54	55	0.0169	  0.0707	0.0202    115	115   115	0       0	0	-30	30;
	54	56	0.00275	  0.00955	0.00732   115	115   115 	0       0	0	-30	30;
	55	56	0.00488	  0.0151	0.00374   115	115   115	0       0	0	-30	30;
	54	59	0.0503	  0.2293	0.0598    115	115   115	0       0	0	-30	30;
	55	59	0.04739	  0.2158	0.05646   115	115   115 	0       0	0	-30	30;
	59	60	0.0317	  0.145	    0.0376    115	115   115	0       0	0	-30	30;
	60	61	0.00264	  0.0135 	0.01456   200	200	  200	0       0	0	-30	30;
	61	62	0.00824	  0.0376	0.0098    115	115   115  	0       0	0	-30	30;
	49	66	0.018	  0.0919	0.0248    200	200	  200	0       0	0	-30	30;
	66	67	0.0224	  0.1015	0.02682   115	115   115  	0       0	0	-30	30;
	65	68	0.00138	  0.016	    0.638     200	200	  200	0       0	0	-30	30;
	49	69	0.0985	  0.324	    0.0828    115	115   115	0       0	0	-30	30;
	70	74	0.0401	  0.1323	0.03368   115	115   115  	0       0	0	-30	30;
	69	75	0.0405	  0.122	    0.124     200	200	  200	0       0	0	-30	30;
	76	77	0.0444	  0.148	    0.0368    115	115   115	0       0	0	-30	30;
	69	77	0.0309	  0.101	    0.1038    115	115   115	0       0	0	-30	30;
	77	80	0.017	  0.0485	0.0472    200	200	  200	0       0	0	-30	30;
	81	80	0	      0.037	    0         200	200	  200	0.935  	0	0	-30	30;
	88	89	0.0139	  0.0712	0.01934   200	200	  200	0       0	0	-30	30;
	89	90	0.0238	  0.0997	0.106     200	200	  200	0       0	0	-30	30;
	80	99	0.0454	  0.206	    0.0546    115	200	  200	0       0	0	-30	30;
	100	104	0.0451	  0.204	    0.0541    115	115   115  	0       0	0	-30	30;
	100	106	0.0605	  0.229	    0.062     115	115   115  	0       0	0	-30	30;
	114	115	0.0023	  0.0104	0.00276   115	115   115	0       0	0	-30	30;
];

%% branch data
%column_names%	f_bus	t_bus	  br_r	      br_x	        br_b	     rate_a	      rate_b	    rate_c	       tap	      shift	     br_status	angmin	angmax	construction_cost
mpc.ne_branch = [
	1	3	0.0129	  0.0424	0.01082   115   115   115	0	    0   1	-30	30			7.6;
	11	12	0.00595	  0.0196	0.00502   115	115   115	0       0	1	-30	30		    4.4;
	3	12	0.0484	  0.16	    0.0406    115	115   115	0       0	1	-30	30			24;
	12	16	0.0212	  0.0834	0.0214    115	115   115	0       0	1	-30	30		    15;
	18	19	0.01119	  0.0493	0.01142   115	115   115	0       0	1	-30	30		    8.9;
	19	20	0.0252	  0.117	    0.0298    115	115   115	0       0	1	-30	30		    17.6;
	15	19	0.012	  0.0394	0.0101    115	115   115	0       0	1	-30	30		    7.1;
	26	25	0	      0.0382	0         200	200	  200	0.96   	0	1	-30	30	        6.9;
	25	27	0.0318	  0.163	    0.1764    200	200	  200	0       0	1	-30	30	        24.5;
	31	32	0.0298	  0.0985	0.0251    115	115   115	0       0	1	-30	30		    17.7;
	19	34	0.0752	  0.247	    0.0632    115	115   115  	0       0	1	-30	30		    37.1;
	35	36	0.00224	  0.0102	0.00268   115	115   115 	0       0	1	-30	30		    2.3;
	41	42	0.041 	  0.135	    0.0344    115	115   115	0       0	1	-30	30		    20.3;
	45	46	0.04	  0.1356	0.0332    115	115   115  	0       0	1	-30	30		    20.3;
	45	49	0.0684	  0.186	    0.0444    115	115   115  	0       0	1	-30	30		    27.9;
	48	49	0.0179	  0.0505	0.01258   115	115   115  	0       0	1	-30	30		    9.1;
	54	55	0.0169	  0.0707	0.0202    115	115   115	0       0	1	-30	30		    12.7;
	54	56	0.00275	  0.00955	0.00732   115	115   115 	0       0	1	-30	30		    2.1;
	55	56	0.00488	  0.0151	0.00374   115	115   115	0       0	1	-30	30		    3.4;
	54	59	0.0503	  0.2293	0.0598    115	115   115	0       0	1	-30	30		    34.4;
	55	59	0.04739	  0.2158	0.05646   115	115   115 	0       0	1	-30	30		    32.4;
	59	60	0.0317	  0.145	    0.0376    115	115   115	0       0	1	-30	30		    21.8;
	60	61	0.00264	  0.0135 	0.01456   200	200	  200	0       0	1	-30	30         3;
	61	62	0.00824	  0.0376	0.0098    115	115   115  	0       0	1	-30	30	        6.8;
	49	66	0.018	  0.0919	0.0248    200	200	  200	0       0	1	-30	30	        16.5;
	66	67	0.0224	  0.1015	0.02682   115	115   115  	0       0	1	-30	30		    15.2;
	65	68	0.00138	  0.016	    0.638     200	200	  200	0       0	1	-30	30	        3.6;
	49	69	0.0985	  0.324	    0.0828    115	115   115	0       0	1	-30	30		    48.6;
	70	74	0.0401	  0.1323	0.03368   115	115   115  	0       0	1	-30	30		    19.8;
	69	75	0.0405	  0.122	    0.124     200	200	  200	0       0	1	-30	30	        18.3;
	76	77	0.0444	  0.148	    0.0368    115	115   115	0       0	1	-30	30		    22.2;
	69	77	0.0309	  0.101	    0.1038    115	115   115	0       0	1	-30	30		    15.2;
	77	80	0.017	  0.0485	0.0472    200	200	  200	0       0	1	-30	30	        8.7;
	81	80	0	      0.037	    0         200	200	  200	0.935  	0	1	-30	30	        6.7;
	88	89	0.0139	  0.0712	0.01934   200	200	  200	0       0	1	-30	30	        12.8;
	89	90	0.0238	  0.0997	0.106     200	200	  200	0       0	1	-30	30	        17.9;
	80	99	0.0454	  0.206	    0.0546    115	200	  200	0       0	1	-30	30	        30.9;
	100	104	0.0451	  0.204	    0.0541    115	115   115  	0       0	1	-30	30		    30.6;
	100	106	0.0605	  0.229	    0.062     115	115   115  	0       0	1	-30	30		    34.4;
	114	115	0.0023	  0.0104	0.00276   115	115   115	0       0	1	-30	30		    2.3;
];

%% generator cost data
%	1	startup	shutdown	n	x1	y1	...	xn	yn
%	2	startup	shutdown	cn	c(n-1)	...	c0

mpc.gencost = [
2 0 0 3 0.01 40 0;
2 0 0 3 0.01 40 0;
2 0 0 3 0.01 40 0;
2 0 0 3 0.01 40 0;
2 0 0 3 0.022222 20 0;
2 0 0 3 0.11765 20 0;
2 0 0 3 0.01 40 0;
2 0 0 3 0.01 40 0;
2 0 0 3 0.01 40 0;
2 0 0 3 0.01 40 0;
2 0 0 3 0.045455 20 0;
2 0 0 3 0.031847 20 0;
2 0 0 3 0.01 40 0;
2 0 0 3 1.4286 20 0;
2 0 0 3 0.01 40 0;
2 0 0 3 0.01 40 0;
2 0 0 3 0.01 40 0;
2 0 0 3 0.01 40 0;
2 0 0 3 0.01 40 0;
2 0 0 3 0.52632 20 0;
2 0 0 3 0.04902 20 0;
2 0 0 3 0.20833 20 0;
2 0 0 3 0.01 40 0;
2 0 0 3 0.01 40 0;
2 0 0 3 0.064516 20 0;
2 0 0 3 0.0625 20 0;
2 0 0 3 0.01 40 0;
2 0 0 3 0.025575 20 0;
2 0 0 3 0.02551 20 0;
2 0 0 3 0.019365 20 0;
2 0 0 3 0.01 40 0;
2 0 0 3 0.01 40 0;
2 0 0 3 0.01 40 0;
2 0 0 3 0.01 40 0;
2 0 0 3 0.01 40 0;
2 0 0 3 0.01 40 0;
2 0 0 3 0.020964 20 0;
2 0 0 3 0.01 40 0;
2 0 0 3 2.5 20 0;
2 0 0 3 0.016474 20 0;
2 0 0 3 0.01 40 0;
2 0 0 3 0.01 40 0;
2 0 0 3 0.01 40 0;
2 0 0 3 0.01 40 0;
2 0 0 3 0.039683 20 0;
2 0 0 3 0.25 20 0;
2 0 0 3 0.01 40 0;
2 0 0 3 0.01 40 0;
2 0 0 3 0.01 40 0;
2 0 0 3 0.01 40 0;
2 0 0 3 0.27778 20 0;
2 0 0 3 0.01 40 0;
2 0 0 3 0.01 40 0;
2 0 0 3 0.01 40 0;
2 0 0 3 0 1000000 0;
2 0 0 3 0 1000000 0;
2 0 0 3 0 1000000 0;
2 0 0 3 0 1000000 0;
2 0 0 3 0 1000000 0;
2 0 0 3 0 1000000 0;
2 0 0 3 0 1000000 0;
2 0 0 3 0 1000000 0;
2 0 0 3 0 1000000 0;
2 0 0 3 0 1000000 0;
2 0 0 3 0 1000000 0;
2 0 0 3 0 1000000 0;
2 0 0 3 0 1000000 0;
2 0 0 3 0 1000000 0;
2 0 0 3 0 1000000 0;
2 0 0 3 0 1000000 0;
2 0 0 3 0 1000000 0;
2 0 0 3 0 1000000 0;
2 0 0 3 0 1000000 0;
2 0 0 3 0 1000000 0;
2 0 0 3 0 1000000 0;
2 0 0 3 0 1000000 0;
2 0 0 3 0 1000000 0;
2 0 0 3 0 1000000 0;
2 0 0 3 0 1000000 0;
2 0 0 3 0 1000000 0;
2 0 0 3 0 1000000 0;
2 0 0 3 0 1000000 0;
2 0 0 3 0 1000000 0;
2 0 0 3 0 1000000 0;
2 0 0 3 0 1000000 0;
2 0 0 3 0 1000000 0;
2 0 0 3 0 1000000 0;
2 0 0 3 0 1000000 0;
2 0 0 3 0 1000000 0;
2 0 0 3 0 1000000 0;
2 0 0 3 0 1000000 0;
2 0 0 3 0 1000000 0;
2 0 0 3 0 1000000 0;
2 0 0 3 0 1000000 0;
2 0 0 3 0 1000000 0;
2 0 0 3 0 1000000 0;
2 0 0 3 0 1000000 0;
2 0 0 3 0 1000000 0;
2 0 0 3 0 1000000 0;
2 0 0 3 0 1000000 0;
2 0 0 3 0 1000000 0;
2 0 0 3 0 1000000 0;
2 0 0 3 0 1000000 0;
2 0 0 3 0 1000000 0;
2 0 0 3 0 1000000 0;
2 0 0 3 0 1000000 0;
2 0 0 3 0 1000000 0;
2 0 0 3 0 1000000 0;
2 0 0 3 0 1000000 0;
2 0 0 3 0 1000000 0;
2 0 0 3 0 1000000 0;
2 0 0 3 0 1000000 0;
2 0 0 3 0 1000000 0;
2 0 0 3 0 1000000 0;
2 0 0 3 0 1000000 0;
2 0 0 3 0 1000000 0;
2 0 0 3 0 1000000 0;
2 0 0 3 0 1000000 0;
];

% hours
mpc.time_elapsed = 1.0
    
%% storage data
%   storage_bus ps qs energy  energy_rating charge_rating  discharge_rating  charge_efficiency  discharge_efficiency  thermal_rating  qmin  qmax  r  x  p_loss  q_loss  status
mpc.storage = [
3	 0.0	 0.0	 30.0	 100.0	 50.0	 70.0	 0.8	 0.9	 100.0	 -50.0	 70.0	 0.1	 0.0	 0.0	 0.0	 0;
11	 0.0	 0.0	 30.0	 100.0	 50.0	 70.0	 0.8	 0.9	 100.0	 -50.0	 70.0	 0.1	 0.0	 0.0	 0.0	 0;
27	 0.0	 0.0	 30.0	 100.0	 50.0	 70.0	 0.8	 0.9	 100.0	 -50.0	 70.0	 0.1	 0.0	 0.0	 0.0	 0;
32	 0.0	 0.0	 30.0	 100.0	 50.0	 70.0	 0.8	 0.9	 100.0	 -50.0	 70.0	 0.1	 0.0	 0.0	 0.0	 0;
49	 0.0	 0.0	 30.0	 100.0	 50.0	 70.0	 0.8	 0.9	 100.0	 -50.0	 70.0	 0.1	 0.0	 0.0	 0.0	 0;
61	 0.0	 0.0	 30.0	 100.0	 50.0	 70.0	 0.8	 0.9	 100.0	 -50.0	 70.0	 0.1	 0.0	 0.0	 0.0	 0;
90	 0.0	 0.0	 30.0	 100.0	 50.0	 70.0	 0.8	 0.9	 100.0	 -50.0	 70.0	 0.1	 0.0	 0.0	 0.0	 0;
114	 0.0	 0.0	 30.0	 100.0	 50.0	 70.0	 0.8	 0.9	 100.0	 -50.0	 70.0	 0.1	 0.0	 0.0	 0.0	 0;
115	 0.0	 0.0	 30.0	 100.0	 50.0	 70.0	 0.8	 0.9	 100.0	 -50.0	 70.0	 0.1	 0.0	 0.0	 0.0	 0;
];

%%storage cost %M$0.15/MWh%	%2.5%CostoInversion
%column_names% x0 x1 x2
mpc.storage_cost = [
   	15	1.4	1
   	15	1.4	1
   	15	1.4	1
   	15	1.4	1
   	15	1.4	1
   	15	1.4	1
   	15	1.4	1
   	15	1.4	1
   	15	1.4	1
];

%% load curve
%column_names%	t
mpc.load_curve = [
0.5
1
];

